<?xml version="1.0" encoding="UTF-8"?>

<routes xmlns:xsi="http://www.w3.org/2001/XMLSchema-instance" xsi:noNamespaceSchemaLocation="http://sumo.dlr.de/xsd/routes_file.xsd">
    <!-- VTypes -->
    <vType id="AV" minGap="0.00" width="1.8" length = "5.0" color="green" 
    carFollowModel="EIDM" accel="2.6" tau="0.1" tpreview="3" tPersDrive="3" tPersEstimate="10" stepping="0.1"/>
    <vType id="HDV" minGap="0.00" width="1.8" length = "5.0" color="blue" 
    carFollowModel="EIDM" accel="2.6" tau="0.1" tpreview="2" tPersDrive="3" tPersEstimate="10" stepping="0.1"/>
    <!-- Routes -->
    <route id="AV_route1" edges="E7 E6"/>
    <!-- Vehicles, persons and containers (sorted by depart) -->
    <flow id="f_0" type="HDV" begin="0.00" from="-E6" to="-E9" end="36000.00" vehsPerHour="1000"/> <!--South to North-->
    <flow id="f_01" type="HDV" begin="0.00" from="-E6" to="E8" end="36000.00" vehsPerHour="255"/> <!--South to East-->
    <flow id="f_1" type="HDV" begin="0.00" from="E9" to="E6" end="36000.00" vehsPerHour="1000"/> <!--North to South-->
    <flow id="f_11" type="HDV" begin="0.00" from="E9" to="-E7" end="36000.00" vehsPerHour="255"/> <!--North to South-->
</routes>
