<?xml version="1.0" encoding="UTF-8"?>

<!-- generated on 2024-05-20 12:26:51 by Eclipse SUMO netedit Version 1.20.0
<configuration xmlns:xsi="http://www.w3.org/2001/XMLSchema-instance" xsi:noNamespaceSchemaLocation="http://sumo.dlr.de/xsd/neteditConfiguration.xsd">

    <input>
        <sumo-net-file value="/home/tao/Develop/Simulation_WS/intersection/input/int.net.xml"/>
    </input>

    <output>
        <output-file value="/home/tao/Develop/Simulation_WS/intersection/input/int.net.xml"/>
    </output>

    <processing>
        <geometry.min-radius.fix.railways value="false"/>
        <geometry.max-grade.fix value="false"/>
        <offset.disable-normalization value="true"/>
        <lefthand value="1"/>
    </processing>

    <junctions>
        <no-turnarounds value="true"/>
        <junctions.corner-detail value="5"/>
        <junctions.limit-turn-speed value="5.50"/>
        <rectangular-lane-cut value="0"/>
    </junctions>

    <pedestrian>
        <walkingareas value="0"/>
    </pedestrian>

</configuration>
-->

<net version="1.20" junctionCornerDetail="5" lefthand="true" limitTurnSpeed="5.50" xmlns:xsi="http://www.w3.org/2001/XMLSchema-instance" xsi:noNamespaceSchemaLocation="http://sumo.dlr.de/xsd/net_file.xsd">

    <location netOffset="0.00,0.00" convBoundary="-400.00,-100.00,0.00,300.00" origBoundary="-10000000000.00,-10000000000.00,10000000000.00,10000000000.00" projParameter="!"/>

    <edge id=":J8_0" function="internal">
        <lane id=":J8_0_0" index="0" speed="6.79" length="9.68" width="4.00" shape="-202.00,92.00 -202.38,94.62 -203.50,96.50 -205.38,97.62 -208.00,98.00"/>
    </edge>
    <edge id=":J8_1" function="internal">
        <lane id=":J8_1_0" index="0" speed="20.00" length="16.00" width="4.00" shape="-202.00,92.00 -202.00,108.00"/>
    </edge>
    <edge id=":J8_2" function="internal">
        <lane id=":J8_2_0" index="0" speed="8.35" length="5.23" width="4.00" shape="-202.00,92.00 -201.10,95.55 -200.18,96.82"/>
    </edge>
    <edge id=":J8_12" function="internal">
        <lane id=":J8_12_0" index="0" speed="8.35" length="10.05" width="4.00" shape="-200.18,96.82 -198.77,98.77 -195.55,101.10 -192.00,102.00"/>
    </edge>
    <edge id=":J8_3" function="internal">
        <lane id=":J8_3_0" index="0" speed="6.79" length="9.68" width="4.00" shape="-192.00,98.00 -194.62,97.62 -196.50,96.50 -197.62,94.62 -198.00,92.00"/>
    </edge>
    <edge id=":J8_4" function="internal">
        <lane id=":J8_4_0" index="0" speed="20.00" length="16.00" width="4.00" shape="-192.00,98.00 -208.00,98.00"/>
    </edge>
    <edge id=":J8_5" function="internal">
        <lane id=":J8_5_0" index="0" speed="8.35" length="15.27" width="4.00" shape="-192.00,98.00 -195.55,98.90 -198.77,101.23 -201.10,104.45 -202.00,108.00"/>
    </edge>
    <edge id=":J8_6" function="internal">
        <lane id=":J8_6_0" index="0" speed="6.79" length="9.68" width="4.00" shape="-198.00,108.00 -197.62,105.38 -196.50,103.50 -194.62,102.38 -192.00,102.00"/>
    </edge>
    <edge id=":J8_7" function="internal">
        <lane id=":J8_7_0" index="0" speed="20.00" length="16.00" width="4.00" shape="-198.00,108.00 -198.00,92.00"/>
    </edge>
    <edge id=":J8_8" function="internal">
        <lane id=":J8_8_0" index="0" speed="8.35" length="5.23" width="4.00" shape="-198.00,108.00 -198.90,104.45 -199.82,103.18"/>
    </edge>
    <edge id=":J8_13" function="internal">
        <lane id=":J8_13_0" index="0" speed="8.35" length="10.05" width="4.00" shape="-199.82,103.18 -201.23,101.23 -204.45,98.90 -208.00,98.00"/>
    </edge>
    <edge id=":J8_9" function="internal">
        <lane id=":J8_9_0" index="0" speed="6.79" length="9.68" width="4.00" shape="-208.00,102.00 -205.38,102.38 -203.50,103.50 -202.38,105.38 -202.00,108.00"/>
    </edge>
    <edge id=":J8_10" function="internal">
        <lane id=":J8_10_0" index="0" speed="20.00" length="16.00" width="4.00" shape="-208.00,102.00 -192.00,102.00"/>
    </edge>
    <edge id=":J8_11" function="internal">
        <lane id=":J8_11_0" index="0" speed="8.35" length="15.27" width="4.00" shape="-208.00,102.00 -204.45,101.10 -201.23,98.77 -198.90,95.55 -198.00,92.00"/>
    </edge>

    <edge id="-E6" from="J9" to="J8" priority="-1">
        <lane id="-E6_0" index="0" speed="20.00" length="192.00" width="4.00" shape="-202.00,-100.00 -202.00,92.00"/>
    </edge>
    <edge id="-E7" from="J8" to="J10" priority="-1">
        <lane id="-E7_0" index="0" speed="20.00" length="192.00" width="4.00" shape="-208.00,98.00 -400.00,98.00"/>
    </edge>
    <edge id="-E8" from="J11" to="J8" priority="-1">
        <lane id="-E8_0" index="0" speed="20.00" length="192.00" width="4.00" shape="0.00,98.00 -192.00,98.00"/>
    </edge>
    <edge id="-E9" from="J8" to="J12" priority="-1">
        <lane id="-E9_0" index="0" speed="20.00" length="192.00" width="4.00" shape="-202.00,108.00 -202.00,300.00"/>
    </edge>
    <edge id="E6" from="J8" to="J9" priority="-1">
        <lane id="E6_0" index="0" speed="20.00" length="192.00" width="4.00" shape="-198.00,92.00 -198.00,-100.00"/>
    </edge>
    <edge id="E7" from="J10" to="J8" priority="-1">
        <lane id="E7_0" index="0" speed="20.00" length="192.00" width="4.00" shape="-400.00,102.00 -208.00,102.00"/>
    </edge>
    <edge id="E8" from="J8" to="J11" priority="-1">
        <lane id="E8_0" index="0" speed="20.00" length="192.00" width="4.00" shape="-192.00,102.00 0.00,102.00"/>
    </edge>
    <edge id="E9" from="J12" to="J8" priority="-1">
        <lane id="E9_0" index="0" speed="20.00" length="192.00" width="4.00" shape="-198.00,300.00 -198.00,108.00"/>
    </edge>

    <junction id="J10" type="dead_end" x="-400.00" y="100.00" incLanes="-E7_0" intLanes="" shape="-400.00,100.00 -400.00,96.00 -400.00,100.00"/>
    <junction id="J11" type="dead_end" x="0.00" y="100.00" incLanes="E8_0" intLanes="" shape="0.00,100.00 0.00,104.00 0.00,100.00"/>
    <junction id="J12" type="dead_end" x="-200.00" y="300.00" incLanes="-E9_0" intLanes="" shape="-200.00,300.00 -204.00,300.00 -200.00,300.00"/>
    <junction id="J8" type="priority" x="-200.00" y="100.00" incLanes="-E6_0 -E8_0 E9_0 E7_0" intLanes=":J8_0_0 :J8_1_0 :J8_12_0 :J8_3_0 :J8_4_0 :J8_5_0 :J8_6_0 :J8_7_0 :J8_13_0 :J8_9_0 :J8_10_0 :J8_11_0" shape="-204.00,92.00 -196.00,92.00 -195.56,94.22 -195.00,95.00 -194.22,95.56 -193.22,95.89 -192.00,96.00 -192.00,104.00 -194.22,104.44 -195.00,105.00 -195.56,105.78 -195.89,106.78 -196.00,108.00 -204.00,108.00 -204.44,105.78 -205.00,105.00 -205.78,104.44 -206.78,104.11 -208.00,104.00 -208.00,96.00 -205.78,95.56 -205.00,95.00 -204.44,94.22 -204.11,93.22">
        <request index="0"  response="000000000000" foes="000100010000" cont="0"/>
        <request index="1"  response="000000000000" foes="111100110000" cont="0"/>
        <request index="2"  response="000011000000" foes="110011110000" cont="1"/>
        <request index="3"  response="000010000000" foes="100010000000" cont="0"/>
        <request index="4"  response="000110000111" foes="100110000111" cont="0"/>
        <request index="5"  response="011110000110" foes="011110000110" cont="0"/>
        <request index="6"  response="000000000000" foes="010000000100" cont="0"/>
        <request index="7"  response="000000000000" foes="110000111100" cont="0"/>
        <request index="8"  response="000000000011" foes="110000110011" cont="1"/>
        <request index="9"  response="000000000010" foes="000000100010" cont="0"/>
        <request index="10" response="000111000110" foes="000111100110" cont="0"/>
        <request index="11" response="000110011110" foes="000110011110" cont="0"/>
    </junction>
    <junction id="J9" type="dead_end" x="-200.00" y="-100.00" incLanes="E6_0" intLanes="" shape="-200.00,-100.00 -196.00,-100.00 -200.00,-100.00"/>

    <junction id=":J8_12_0" type="internal" x="-200.18" y="96.82" incLanes=":J8_2_0 E9_0" intLanes=":J8_4_0 :J8_5_0 :J8_6_0 :J8_7_0 :J8_10_0 :J8_11_0"/>
    <junction id=":J8_13_0" type="internal" x="-199.82" y="103.18" incLanes=":J8_8_0 -E6_0" intLanes=":J8_0_0 :J8_1_0 :J8_4_0 :J8_5_0 :J8_10_0 :J8_11_0"/>

    <connection from="-E6" to="-E7" fromLane="0" toLane="0" via=":J8_0_0" dir="l" state="M"/>
    <connection from="-E6" to="-E9" fromLane="0" toLane="0" via=":J8_1_0" dir="s" state="M"/>
    <connection from="-E6" to="E8" fromLane="0" toLane="0" via=":J8_2_0" dir="r" state="m"/>
    <connection from="-E8" to="E6" fromLane="0" toLane="0" via=":J8_3_0" dir="l" state="m"/>
    <connection from="-E8" to="-E7" fromLane="0" toLane="0" via=":J8_4_0" dir="s" state="m"/>
    <connection from="-E8" to="-E9" fromLane="0" toLane="0" via=":J8_5_0" dir="r" state="m"/>
    <connection from="E7" to="-E9" fromLane="0" toLane="0" via=":J8_9_0" dir="l" state="m"/>
    <connection from="E7" to="E8" fromLane="0" toLane="0" via=":J8_10_0" dir="s" state="m"/>
    <connection from="E7" to="E6" fromLane="0" toLane="0" via=":J8_11_0" dir="r" state="m"/>
    <connection from="E9" to="E8" fromLane="0" toLane="0" via=":J8_6_0" dir="l" state="M"/>
    <connection from="E9" to="E6" fromLane="0" toLane="0" via=":J8_7_0" dir="s" state="M"/>
    <connection from="E9" to="-E7" fromLane="0" toLane="0" via=":J8_8_0" dir="r" state="m"/>

    <connection from=":J8_0" to="-E7" fromLane="0" toLane="0" dir="l" state="M"/>
    <connection from=":J8_1" to="-E9" fromLane="0" toLane="0" dir="s" state="M"/>
    <connection from=":J8_2" to="E8" fromLane="0" toLane="0" via=":J8_12_0" dir="r" state="m"/>
    <connection from=":J8_12" to="E8" fromLane="0" toLane="0" dir="r" state="M"/>
    <connection from=":J8_3" to="E6" fromLane="0" toLane="0" dir="l" state="M"/>
    <connection from=":J8_4" to="-E7" fromLane="0" toLane="0" dir="s" state="M"/>
    <connection from=":J8_5" to="-E9" fromLane="0" toLane="0" dir="r" state="M"/>
    <connection from=":J8_6" to="E8" fromLane="0" toLane="0" dir="l" state="M"/>
    <connection from=":J8_7" to="E6" fromLane="0" toLane="0" dir="s" state="M"/>
    <connection from=":J8_8" to="-E7" fromLane="0" toLane="0" via=":J8_13_0" dir="r" state="m"/>
    <connection from=":J8_13" to="-E7" fromLane="0" toLane="0" dir="r" state="M"/>
    <connection from=":J8_9" to="-E9" fromLane="0" toLane="0" dir="l" state="M"/>
    <connection from=":J8_10" to="E8" fromLane="0" toLane="0" dir="s" state="M"/>
    <connection from=":J8_11" to="E6" fromLane="0" toLane="0" dir="r" state="M"/>

</net>
